Circuit: * F:\Projects\LF-timegate\LineFollower-Timegate\Symulacja ukl sterowania\Wykrywacz_zbocza_wzr.asc

Warning: Multiple definitions of model "2scr375p" Type: BJT
Warning: Multiple definitions of model "bc857b" Type: BJT
Warning: Multiple definitions of model "bc847c" Type: BJT
Warning: Multiple definitions of model "bc847b" Type: BJT
Direct Newton iteration for .op point succeeded.

Date: Thu Aug 15 11:05:31 2024
Total elapsed time: 4.949 seconds.

tnom = 27
temp = 27
method = modified trap
totiter = 128113
traniter = 128092
tranpoints = 62948
accept = 62321
rejected = 627
matrix size = 108
fillins = 38
solver = Normal
Avg thread counts: 1.0/1.0/1.0/1.0
Matrix Compiler1: 4.76 KB object code size  2.1/1.2/[0.9]
Matrix Compiler2: 7.90 KB object code size  1.1/1.0/[0.9]

