Circuit: *source LM2901

Fatal Error: No analysis request found.
